<routes>
   <vType id="car"
   			vClass="passenger" length="5" accel="3.5" decel="2.2"
   			sigma="1.0" maxSpeed="10"/>


    <route id="route_0" edges="e1 e2 e3 e4 e5 e6 e7 e8" />
    <!--<flow id="carflow" type="car" beg="0" end="0" number="5" from="e1" to="e8"/>-->
    <!--<flow id="evflow" type="ev" beg="0" end="0" number="1" from="e1" to="e8"/>-->

    
    <vehicle id="v1" type="car" route="route_0" depart="6"/>
    <vehicle id="v2" type="car" route="route_0" depart="9" color="1,0,0"/>
    <vehicle id="v3" type="car" route="route_0" depart="12"/>


</routes>
