<?xml version="1.0" encoding="UTF-8"?>

<!-- generated on 2024-03-07 12:56:21 by Eclipse SUMO netedit Version 1.12.0
<configuration xmlns:xsi="http://www.w3.org/2001/XMLSchema-instance" xsi:noNamespaceSchemaLocation="http://sumo.dlr.de/xsd/netconvertConfiguration.xsd">

    <input>
        <sumo-net-file value="$HOME/Documents/CACC/ACC_Demo/demo.net.xml"/>
    </input>

    <output>
        <output-file value="$HOME/Documents/CACC/ACC_Demo/demo.net.xml"/>
    </output>

    <processing>
        <geometry.min-radius.fix.railways value="false"/>
        <geometry.max-grade.fix value="false"/>
        <offset.disable-normalization value="true"/>
        <lefthand value="false"/>
    </processing>

    <junctions>
        <no-turnarounds value="true"/>
        <junctions.corner-detail value="0"/>
        <junctions.limit-turn-speed value="-1"/>
        <rectangular-lane-cut value="false"/>
    </junctions>

    <pedestrian>
        <walkingareas value="false"/>
    </pedestrian>

    <report>
        <aggregate-warnings value="5"/>
    </report>

</configuration>
-->

<net version="1.9" xmlns:xsi="http://www.w3.org/2001/XMLSchema-instance" xsi:noNamespaceSchemaLocation="http://sumo.dlr.de/xsd/net_file.xsd">

    <location netOffset="0.00,0.00" convBoundary="-43.39,35.04,29.22,107.01" origBoundary="-10000000000.00,-10000000000.00,10000000000.00,10000000000.00" projParameter="!"/>

    <edge id=":gneJ10_0" function="internal">
        <lane id=":gneJ10_0_0" index="0" speed="13.89" length="1.44" shape="-30.46,45.09 -30.80,45.23 -31.08,45.44 -31.31,45.71 -31.47,46.04"/>
    </edge>
    <edge id=":gneJ11_0" function="internal">
        <lane id=":gneJ11_0_0" index="0" speed="13.89" length="1.23" shape="-41.44,72.27 -41.56,72.61 -41.60,72.86 -41.56,73.11 -41.43,73.44"/>
    </edge>
    <edge id=":gneJ4_0" function="internal">
        <lane id=":gneJ4_0_0" index="0" speed="13.89" length="1.45" shape="-31.65,97.24 -31.48,97.57 -31.24,97.83 -30.95,98.03 -30.60,98.17"/>
    </edge>
    <edge id=":gneJ5_0" function="internal">
        <lane id=":gneJ5_0_0" index="0" speed="13.89" length="1.09" shape="-5.62,105.17 -5.31,105.25 -5.09,105.27 -4.87,105.22 -4.57,105.10"/>
    </edge>
    <edge id=":gneJ6_0" function="internal">
        <lane id=":gneJ6_0_0" index="0" speed="13.89" length="1.45" shape="20.22,94.72 20.55,94.54 20.81,94.30 21.01,94.01 21.15,93.66"/>
    </edge>
    <edge id=":gneJ7_0" function="internal">
        <lane id=":gneJ7_0_0" index="0" speed="13.89" length="0.80" shape="27.46,70.61 27.52,70.38 27.54,70.22 27.53,70.05 27.48,69.82"/>
    </edge>
    <edge id=":gneJ8_0" function="internal">
        <lane id=":gneJ8_0_0" index="0" speed="13.89" length="1.68" shape="21.80,45.50 21.65,45.09 21.42,44.76 21.11,44.51 20.71,44.33"/>
    </edge>
    <edge id=":gneJ9_0" function="internal">
        <lane id=":gneJ9_0_0" index="0" speed="13.89" length="0.98" shape="-3.71,36.86 -3.99,36.78 -4.19,36.76 -4.39,36.79 -4.67,36.87"/>
    </edge>

    <edge id="e1" from="gneJ4" to="gneJ5" priority="1" length="90.29">
        <lane id="e1_0" index="0" speed="13.89" length="90.29" shape="-30.60,98.17 -5.62,105.17"/>
    </edge>
    <edge id="e2" from="gneJ5" to="gneJ6" priority="1">
        <lane id="e2_0" index="0" speed="13.89" length="26.88" shape="-4.57,105.10 20.22,94.72"/>
    </edge>
    <edge id="e3" from="gneJ6" to="gneJ7" priority="1">
        <lane id="e3_0" index="0" speed="13.89" length="23.90" shape="21.15,93.66 27.46,70.61"/>
    </edge>
    <edge id="e4" from="gneJ7" to="gneJ8" priority="1">
        <lane id="e4_0" index="0" speed="13.89" length="24.98" shape="27.48,69.82 21.80,45.50"/>
    </edge>
    <edge id="e5" from="gneJ8" to="gneJ9" priority="1">
        <lane id="e5_0" index="0" speed="13.89" length="25.54" shape="20.71,44.33 -3.71,36.86"/>
    </edge>
    <edge id="e6" from="gneJ9" to="gneJ10" priority="1">
        <lane id="e6_0" index="0" speed="13.89" length="27.07" shape="-4.67,36.87 -30.46,45.09"/>
    </edge>
    <edge id="e7" from="gneJ10" to="gneJ11" priority="1">
        <lane id="e7_0" index="0" speed="13.89" length="28.06" shape="-31.47,46.04 -41.44,72.27"/>
    </edge>
    <edge id="e8" from="gneJ11" to="gneJ4" priority="1">
        <lane id="e8_0" index="0" speed="13.89" length="25.73" shape="-41.43,73.44 -31.65,97.24"/>
    </edge>

    <junction id="gneJ10" type="priority" x="-32.42" y="44.03" incLanes="e6_0" intLanes=":gneJ10_0_0" shape="-29.98,46.61 -30.95,43.56 -32.97,45.47">
        <request index="0" response="0" foes="0" cont="0"/>
    </junction>
    <junction id="gneJ11" type="priority" x="-43.39" y="72.88" incLanes="e7_0" intLanes=":gneJ11_0_0" shape="-42.91,74.05 -39.95,72.83 -42.94,71.70">
        <request index="0" response="0" foes="0" cont="0"/>
    </junction>
    <junction id="gneJ4" type="priority" x="-32.54" y="99.29" incLanes="e8_0" intLanes=":gneJ4_0_0" shape="-31.04,99.71 -30.17,96.63 -33.13,97.85">
        <request index="0" response="0" foes="0" cont="0"/>
    </junction>
    <junction id="gneJ5" type="priority" x="-4.98" y="107.01" incLanes="e1_0" intLanes=":gneJ5_0_0" shape="-3.95,106.58 -5.19,103.63 -6.05,106.71">
        <request index="0" response="0" foes="0" cont="0"/>
    </junction>
    <junction id="gneJ6" type="priority" x="22.28" y="95.59" incLanes="e2_0" intLanes=":gneJ6_0_0" shape="22.69,94.09 19.61,93.24 20.84,96.19">
        <request index="0" response="0" foes="0" cont="0"/>
    </junction>
    <junction id="gneJ7" type="priority" x="29.22" y="70.25" incLanes="e3_0" intLanes=":gneJ7_0_0" shape="29.04,69.46 25.92,70.19 29.01,71.03">
        <request index="0" response="0" foes="0" cont="0"/>
    </junction>
    <junction id="gneJ8" type="priority" x="22.94" y="43.34" incLanes="e4_0" intLanes=":gneJ8_0_0" shape="20.24,45.86 23.36,45.13 21.18,42.80">
        <request index="0" response="0" foes="0" cont="0"/>
    </junction>
    <junction id="gneJ9" type="priority" x="-4.20" y="35.04" incLanes="e5_0" intLanes=":gneJ9_0_0" shape="-4.18,38.39 -3.24,35.33 -5.15,35.34">
        <request index="0" response="0" foes="0" cont="0"/>
    </junction>

    <connection from="e1" to="e2" fromLane="0" toLane="0" via=":gneJ5_0_0" dir="s" state="M"/>
    <connection from="e2" to="e3" fromLane="0" toLane="0" via=":gneJ6_0_0" dir="r" state="M"/>
    <connection from="e3" to="e4" fromLane="0" toLane="0" via=":gneJ7_0_0" dir="s" state="M"/>
    <connection from="e4" to="e5" fromLane="0" toLane="0" via=":gneJ8_0_0" dir="r" state="M"/>
    <connection from="e5" to="e6" fromLane="0" toLane="0" via=":gneJ9_0_0" dir="s" state="M"/>
    <connection from="e6" to="e7" fromLane="0" toLane="0" via=":gneJ10_0_0" dir="r" state="M"/>
    <connection from="e7" to="e8" fromLane="0" toLane="0" via=":gneJ11_0_0" dir="s" state="M"/>
    <connection from="e8" to="e1" fromLane="0" toLane="0" via=":gneJ4_0_0" dir="r" state="M"/>

    <connection from=":gneJ10_0" to="e7" fromLane="0" toLane="0" dir="r" state="M"/>
    <connection from=":gneJ11_0" to="e8" fromLane="0" toLane="0" dir="s" state="M"/>
    <connection from=":gneJ4_0" to="e1" fromLane="0" toLane="0" dir="r" state="M"/>
    <connection from=":gneJ5_0" to="e2" fromLane="0" toLane="0" dir="s" state="M"/>
    <connection from=":gneJ6_0" to="e3" fromLane="0" toLane="0" dir="r" state="M"/>
    <connection from=":gneJ7_0" to="e4" fromLane="0" toLane="0" dir="s" state="M"/>
    <connection from=":gneJ8_0" to="e5" fromLane="0" toLane="0" dir="r" state="M"/>
    <connection from=":gneJ9_0" to="e6" fromLane="0" toLane="0" dir="s" state="M"/>

</net>
